/*--------------------------------*- C++ -*----------------------------------*\
| =========                 |                                                 |
| \\      /  F ield         | OpenFOAM: The Open Source CFD Toolbox           |
|  \\    /   O peration     | Version:  v2112                                 |
|   \\  /    A nd           | Website:  www.openfoam.com                      |
|    \\/     M anipulation  |                                                 |
\*---------------------------------------------------------------------------*/
FoamFile
{
    version     2.0;
    format      ascii;
    class       dictionary;
    object      controlDict;
}
// * * * * * * * * * * * * * * * * * * * * * * * * * * * * * * * * * * * * * //

application     interFoam;

startFrom       startTime;

startTime       0;

stopAt          endTime;

endTime         35;

deltaT          0.001;

writeControl    adjustable;

writeInterval   0.05;

purgeWrite      0;

writeFormat     ascii;

writePrecision  6;

writeCompression off;

timeFormat      general;

timePrecision   6;

runTimeModifiable yes;

adjustTimeStep  yes;

maxCo           1;

maxAlphaCo      1;

maxDeltaT       0.01;

functions
{
    #includeFunc "probes"
    #includeFunc "singleGraph"
    
    line
    {
        type            sets;
        libs            (sampling);
        enabled         true;
        writeControl    adjustableRunTime;
        writeInterval   0.03125;
        timeStart   0;

        interpolationScheme cellPoint;
        setFormat       raw;
        fixedLocations  false;

        fields
        (
            alpha.water
        );

        sets
        (
            line0
            {
                type    uniform;
                axis    z;
                start   ( 0 0 0.0 );
                end     ( 0 0 1.0 );
                nPoints 100;
            }        
            line1
            {
                type    uniform;
                axis    z;
                start   ( 3 0 0.0 );
                end     ( 3 0 1.0 );
                nPoints 100;
            }
        );
    }
}

// ************************************************************************* //
