/*--------------------------------*- C++ -*----------------------------------*\
| =========                 |                                                 |
| \\      /  F ield         | OpenFOAM: The Open Source CFD Toolbox           |
|  \\    /   O peration     | Version:  v2306                                 |
|   \\  /    A nd           | Website:  www.openfoam.com                      |
|    \\/     M anipulation  |                                                 |
\*---------------------------------------------------------------------------*/
FoamFile
{
    version     2.0;
    format      ascii;
    class       dictionary;
    object      fvOptions;
}
// * * * * * * * * * * * * * * * * * * * * * * * * * * * * * * * * * * * * * //

porosity1
{
    type            explicitPorositySource;

    explicitPorositySourceCoeffs
    {
        selectionMode   cellZone;
        cellZone        rocks;

        type            DarcyForchheimer;

        d   (1e8 1e8 1e8);
        f   (0 0 0);

        coordinateSystem
        {
            origin  (0 0 0);
            e1      (1 0 0);
            e2      (0 0 1);
        }
    }
}


//************************************************************************* //
